.lib /usr/local/share/pdk/sky130A/libs.tech/ngspice/sky130.lib.spice tt

* NGSPICE file created from tempsensor_rcx.ext - technology: sky130A

.subckt tempsensor_rcx vdd vbe1_out ena vbg vbe2_out vss
X0 a_1429_n4304.t2 a_1429_n4304.t1 vss vss sky130_fd_pr__pfet_01v8_lvt ad=0.29 pd=2.58 as=0.29 ps=2.58 w=1 l=10
X1 a_495_638.t1 a_495_638.t0 vss vss sky130_fd_pr__pfet_01v8_lvt ad=0.29 pd=2.58 as=0.29 ps=2.58 w=1 l=10
X2 a_764_n1158.t0 ena.t0 vss.t33 vss.t32 sky130_fd_pr__nfet_01v8 ad=0.29 pd=2.58 as=0.29 ps=2.58 w=1 l=10
X3 a_1660_n393# ena.t1 vss vss sky130_fd_pr__pfet_01v8 ad=0.29 pd=2.58 as=0.29 ps=2.58 w=1 l=1
X4 a_495_638.t0 XQ_BR1.Emitter.t6 a_1537_2302# vss.t38 sky130_fd_pr__nfet_01v8 ad=0.29 pd=2.58 as=0.29 ps=2.58 w=1 l=10
X5 vss a_1660_n393# XQ_BR1.Emitter.t4 vss sky130_fd_pr__pfet_01v8_lvt ad=0.29 pd=2.58 as=0.29 ps=2.58 w=1 l=1
X6 a_2471_n2640.t1 vbe1_out.t0 vbe1_out.t1 vss.t39 sky130_fd_pr__nfet_01v8 ad=0.29 pd=2.58 as=0.29 ps=2.58 w=1 l=10
X7 vss.t35 vss.t34 XQ_BR1.Emitter.t5 sky130_fd_pr__pnp_05v5_W3p40L3p40
**devattr s=462400,2720 d=19848076,36944
D0 vss.t4 vbe2_out.t3 sky130_fd_pr__diode_pw2nd_05v5 pj=1.8e+06 area=2.025e+11
X8 a_1537_2302# vbe2_out.t1 vbe2_out.t2 vss.t40 sky130_fd_pr__nfet_01v8 ad=0.29 pd=2.58 as=0.29 ps=2.58 w=1 l=10
X9 vss a_1660_n393# x2.input.t0 vss sky130_fd_pr__pfet_01v8_lvt ad=0.29 pd=2.58 as=0.29 ps=2.58 w=1 l=1
X10 vss a_1660_n393# XQ_BR1.Emitter.t3 vss sky130_fd_pr__pfet_01v8_lvt ad=0.29 pd=2.58 as=0.29 ps=2.58 w=1 l=1
X11 a_1429_n4304.t0 x2.input.t2 a_2471_n2640.t0 vss.t5 sky130_fd_pr__nfet_01v8 ad=0.29 pd=2.58 as=0.29 ps=2.58 w=1 l=10
X12 vss a_1660_n393# XQ_BR1.Emitter.t2 vss sky130_fd_pr__pfet_01v8_lvt ad=0.29 pd=2.58 as=0.29 ps=2.58 w=1 l=1
D1 vss.t41 vbg.t0 sky130_fd_pr__diode_pw2nd_05v5 pj=1.8e+06 area=2.025e+11
D2 vss.t25 vbe1_out.t3 sky130_fd_pr__diode_pw2nd_05v5 pj=1.8e+06 area=2.025e+11
X13 vss.t24 ena.t2 a_1537_2302# vss.t23 sky130_fd_pr__nfet_01v8 ad=0.29 pd=2.58 as=0.29 ps=2.58 w=1 l=10
X14 vss a_1660_n393# XQ_BR1.Emitter.t1 vss sky130_fd_pr__pfet_01v8_lvt ad=0.29 pd=2.58 as=0.29 ps=2.58 w=1 l=1
X15 vss a_495_638.t0 vbe2_out.t0 vss sky130_fd_pr__pfet_01v8_lvt ad=0.29 pd=2.58 as=0.29 ps=2.58 w=1 l=10
X16 vss a_506_n1158.t1 a_506_n1158.t2 vss sky130_fd_pr__pfet_01v8 ad=0.29 pd=2.58 as=0.29 ps=2.58 w=1 l=1
X17 vss a_1660_n393# XQ_BR1.Emitter.t0 vss sky130_fd_pr__pfet_01v8_lvt ad=0.29 pd=2.58 as=0.29 ps=2.58 w=1 l=1
X18 a_1660_n393# a_1660_n393# a_764_n1158.t2 vss.t10 sky130_fd_pr__nfet_01v8 ad=0.29 pd=2.58 as=0.29 ps=2.58 w=1 l=1
D3 vss.t6 ena.t3 sky130_fd_pr__diode_pw2nd_05v5 pj=1.8e+06 area=2.025e+11
X19 a_1660_n393# a_506_n1158.t3 vss vss sky130_fd_pr__pfet_01v8 ad=0.29 pd=2.58 as=0.29 ps=2.58 w=1 l=1
X20 a_764_n1158.t1 vbg.t1 a_506_n1158.t0 vss.t9 sky130_fd_pr__nfet_01v8 ad=0.29 pd=2.58 as=0.29 ps=2.58 w=1 l=1
X21 vss.t37 vss.t36 x2.input.t1 sky130_fd_pr__pnp_05v5_W3p40L3p40
**devattr s=462400,2720 d=19848076,36944
X22 vss.t29 ena.t4 a_2471_n2640.t0 vss.t28 sky130_fd_pr__nfet_01v8 ad=0.29 pd=2.58 as=0.29 ps=2.58 w=1 l=10
X23 vss a_1429_n4304.t1 vbe1_out.t2 vss sky130_fd_pr__pfet_01v8_lvt ad=0.29 pd=2.58 as=0.29 ps=2.58 w=1 l=10
R0 a_1429_n4304.t2 a_1429_n4304.t1 228.215
R1 a_1429_n4304.t1 a_1429_n4304.t0 85.8993
R2 vss.n126 vss.n125 1.39509e+06
R3 vss.n126 vss.n76 993664
R4 vss.n416 vss.n60 75637.7
R5 vss.n627 vss.n8 33184.6
R6 vss.n49 vss.n35 9483.78
R7 vss.n125 vss.n7 8818.62
R8 vss.n628 vss.n627 8694.85
R9 vss.n125 vss.n35 8027.75
R10 vss.n62 vss.n61 8013.27
R11 vss.n574 vss.n61 8013.27
R12 vss.n572 vss.n62 8013.27
R13 vss.n574 vss.n572 8013.27
R14 vss.n184 vss.n81 8013.27
R15 vss.n556 vss.n81 8013.27
R16 vss.n184 vss.n82 8013.27
R17 vss.n556 vss.n82 8013.27
R18 vss.n414 vss.n179 8013.27
R19 vss.n414 vss.n180 8013.27
R20 vss.n570 vss.n65 8013.27
R21 vss.n570 vss.n66 8013.27
R22 vss.n618 vss.n19 8013.27
R23 vss.n19 vss.n17 8013.27
R24 vss.n18 vss.n17 8013.27
R25 vss.n618 vss.n18 8013.27
R26 vss.n625 vss.n9 8013.27
R27 vss.n625 vss.n10 8013.27
R28 vss.n32 vss.n30 8013.27
R29 vss.n32 vss.n31 8013.27
R30 vss.n628 vss.n7 7452.73
R31 vss.n602 vss.n35 6644.9
R32 vss.n179 vss.n70 6622.68
R33 vss.n70 vss.n65 6622.68
R34 vss.n180 vss.n71 6622.68
R35 vss.n71 vss.n66 6622.68
R36 vss.n14 vss.n9 6622.68
R37 vss.n30 vss.n14 6622.68
R38 vss.n15 vss.n10 6622.68
R39 vss.n31 vss.n15 6622.68
R40 vss.n603 vss.n602 6301.58
R41 vss.n602 vss.n601 6293.61
R42 vss.n629 vss.n628 5221.33
R43 vss.t37 vss.n76 5215.79
R44 vss.n626 vss.t38 2854.26
R45 vss.n594 vss.n37 2798.56
R46 vss.n600 vss.n37 2798.56
R47 vss.n594 vss.n38 2798.56
R48 vss.n600 vss.n38 2798.56
R49 vss.n129 vss.n128 2798.56
R50 vss.n131 vss.n129 2798.56
R51 vss.n132 vss.n128 2798.56
R52 vss.n132 vss.n131 2798.56
R53 vss.n412 vss.n182 2713.02
R54 vss.n619 vss.n16 2681.95
R55 vss.t23 vss.t40 2681.95
R56 vss.n33 vss.n29 2681.95
R57 vss.t37 vss.t39 2318.31
R58 vss.n528 vss.n94 1548.43
R59 vss.n302 vss.n93 1471.78
R60 vss.n248 vss.n247 1450.55
R61 vss.n247 vss.n246 1450.55
R62 vss.n246 vss.n234 1450.55
R63 vss.n240 vss.n234 1450.55
R64 vss.n611 vss.n27 1407.97
R65 vss.n611 vss.n28 1407.97
R66 vss.n610 vss.n27 1407.97
R67 vss.n610 vss.n28 1407.97
R68 vss.n578 vss.n58 1407.97
R69 vss.n578 vss.n59 1407.97
R70 vss.n579 vss.n58 1407.97
R71 vss.n579 vss.n59 1407.97
R72 vss.n585 vss.n51 1407.97
R73 vss.n585 vss.n52 1407.97
R74 vss.n51 vss.n50 1407.97
R75 vss.n52 vss.n50 1407.97
R76 vss.n587 vss.n44 1407.97
R77 vss.n591 vss.n44 1407.97
R78 vss.n587 vss.n45 1407.97
R79 vss.n591 vss.n45 1407.97
R80 vss.n620 vss.n14 1390.59
R81 vss.n620 vss.n15 1390.59
R82 vss.n564 vss.n70 1390.59
R83 vss.n564 vss.n71 1390.59
R84 vss.n522 vss.n94 1379.79
R85 vss.n522 vss.n521 1379.79
R86 vss.n521 vss.n520 1379.79
R87 vss.n520 vss.n99 1379.79
R88 vss.n631 vss.n5 1379.79
R89 vss.n631 vss.n630 1379.79
R90 vss.n303 vss.n6 1379.79
R91 vss.n303 vss.n302 1379.79
R92 vss.n529 vss.n93 1211.15
R93 vss.n529 vss.n528 1195.82
R94 vss.n240 vss.n239 1144.93
R95 vss.n630 vss.n629 1042.51
R96 vss.n608 vss.n26 1028.14
R97 vss.t32 vss.n64 899.119
R98 vss.n124 vss.n80 883.88
R99 vss.n183 vss.t29 872.783
R100 vss.n22 vss.t24 872.783
R101 vss.n605 vss.n26 806.4
R102 vss.n183 vss.n69 791.34
R103 vss.n22 vss.n13 791.34
R104 vss.n99 vss.n0 804.317
R105 vss.n253 vss.n252 760.077
R106 vss.n253 vss.n227 760.077
R107 vss.n374 vss.n227 760.077
R108 vss.n375 vss.n374 760.077
R109 vss.n376 vss.n375 760.077
R110 vss.n376 vss.n209 760.077
R111 vss.n389 vss.n210 760.077
R112 vss.n217 vss.n210 760.077
R113 vss.n217 vss.n177 760.077
R114 vss.n418 vss.n177 760.077
R115 vss.n418 vss.n417 760.077
R116 vss.n239 vss.n238 733.638
R117 vss.t35 vss.n5 720.558
R118 vss.n252 vss.n8 709.405
R119 vss.n559 vss.n558 609.442
R120 vss.n397 vss.n89 602.201
R121 vss.n90 vss.n89 599.201
R122 vss.n568 vss.n567 596.898
R123 vss.n517 vss.n100 585
R124 vss.n100 vss.n99 585
R125 vss.n519 vss.n518 585
R126 vss.n520 vss.n519 585
R127 vss.n101 vss.n98 585
R128 vss.n521 vss.n98 585
R129 vss.n523 vss.n97 585
R130 vss.n523 vss.n522 585
R131 vss.n110 vss.n103 585
R132 vss.n508 vss.n105 585
R133 vss.n510 vss.n509 585
R134 vss.n512 vss.n104 585
R135 vss.n513 vss.n102 585
R136 vss.n516 vss.n515 585
R137 vss.n505 vss.n504 585
R138 vss.n148 vss.n75 585
R139 vss.n147 vss.n144 585
R140 vss.n479 vss.n478 585
R141 vss.n482 vss.n481 585
R142 vss.n142 vss.n139 585
R143 vss.n136 vss.n122 585
R144 vss.n490 vss.n489 585
R145 vss.n493 vss.n492 585
R146 vss.n121 vss.n118 585
R147 vss.n115 vss.n111 585
R148 vss.n501 vss.n500 585
R149 vss.n501 vss.n80 585
R150 vss.n502 vss.n109 585
R151 vss.n562 vss.n561 585
R152 vss.n549 vss.n73 585
R153 vss.n73 vss.n72 585
R154 vss.n548 vss.n547 585
R155 vss.n547 vss.n546 585
R156 vss.n544 vss.n83 585
R157 vss.n545 vss.n544 585
R158 vss.n543 vss.n542 585
R159 vss.n543 vss.n78 585
R160 vss.n541 vss.n84 585
R161 vss.n84 vss.n79 585
R162 vss.n540 vss.n539 585
R163 vss.n539 vss.n538 585
R164 vss.n86 vss.n85 585
R165 vss.n537 vss.n86 585
R166 vss.n535 vss.n534 585
R167 vss.n536 vss.n535 585
R168 vss.n533 vss.n88 585
R169 vss.n88 vss.n87 585
R170 vss.n249 vss.n233 585
R171 vss.n249 vss.n248 585
R172 vss.n251 vss.n231 585
R173 vss.n252 vss.n251 585
R174 vss.n255 vss.n254 585
R175 vss.n254 vss.n253 585
R176 vss.n229 vss.n228 585
R177 vss.n228 vss.n227 585
R178 vss.n373 vss.n372 585
R179 vss.n374 vss.n373 585
R180 vss.n226 vss.n225 585
R181 vss.n375 vss.n226 585
R182 vss.n378 vss.n377 585
R183 vss.n377 vss.n376 585
R184 vss.n222 vss.n211 585
R185 vss.n211 vss.n209 585
R186 vss.n388 vss.n387 585
R187 vss.n389 vss.n388 585
R188 vss.n214 vss.n212 585
R189 vss.n212 vss.n210 585
R190 vss.n219 vss.n218 585
R191 vss.n218 vss.n217 585
R192 vss.n175 vss.n173 585
R193 vss.n177 vss.n175 585
R194 vss.n420 vss.n419 585
R195 vss.n419 vss.n418 585
R196 vss.n181 vss.n176 585
R197 vss.n417 vss.n176 585
R198 vss.n242 vss.n241 585
R199 vss.n241 vss.n240 585
R200 vss.n243 vss.n235 585
R201 vss.n235 vss.n234 585
R202 vss.n245 vss.n244 585
R203 vss.n246 vss.n245 585
R204 vss.n236 vss.n232 585
R205 vss.n247 vss.n232 585
R206 vss.n525 vss.n524 585
R207 vss.n524 vss.n94 585
R208 vss.n398 vss.n392 585
R209 vss.n399 vss.n398 585
R210 vss.n402 vss.n401 585
R211 vss.n401 vss.n400 585
R212 vss.n403 vss.n391 585
R213 vss.n391 vss.n390 585
R214 vss.n405 vss.n404 585
R215 vss.n406 vss.n405 585
R216 vss.n193 vss.n191 585
R217 vss.n407 vss.n193 585
R218 vss.n410 vss.n409 585
R219 vss.n409 vss.n408 585
R220 vss.n192 vss.n190 585
R221 vss.n208 vss.n192 585
R222 vss.n206 vss.n205 585
R223 vss.n207 vss.n206 585
R224 vss.n204 vss.n195 585
R225 vss.n195 vss.n194 585
R226 vss.n203 vss.n202 585
R227 vss.n202 vss.n201 585
R228 vss.n199 vss.n196 585
R229 vss.n200 vss.n199 585
R230 vss.n198 vss.n197 585
R231 vss.n198 vss.n178 585
R232 vss.n532 vss.n531 585
R233 vss.n531 vss.n530 585
R234 vss.n395 vss.n394 585
R235 vss.n454 vss.n158 585
R236 vss.n450 vss.n449 585
R237 vss.n447 vss.n446 585
R238 vss.n284 vss.n279 585
R239 vss.n278 vss.n276 585
R240 vss.n297 vss.n271 585
R241 vss.n343 vss.n267 585
R242 vss.n310 vss.n263 585
R243 vss.n311 vss.n262 585
R244 vss.n336 vss.n313 585
R245 vss.n337 vss.n336 585
R246 vss.n339 vss.n262 585
R247 vss.n340 vss.n263 585
R248 vss.n343 vss.n342 585
R249 vss.n298 vss.n297 585
R250 vss.n281 vss.n276 585
R251 vss.n284 vss.n283 585
R252 vss.n446 vss.n162 585
R253 vss.n451 vss.n450 585
R254 vss.n454 vss.n453 585
R255 vss.n394 vss.n161 585
R256 vss.n306 vss.n299 585
R257 vss.n302 vss.n299 585
R258 vss.n305 vss.n304 585
R259 vss.n304 vss.n303 585
R260 vss.n301 vss.n300 585
R261 vss.n301 vss.n6 585
R262 vss.n4 vss.n2 585
R263 vss.n630 vss.n4 585
R264 vss.n633 vss.n632 585
R265 vss.n632 vss.n631 585
R266 vss.n3 vss.n1 585
R267 vss.n5 vss.n3 585
R268 vss.n238 vss.n237 585
R269 vss.n308 vss.n307 585
R270 vss.n308 vss.n93 585
R271 vss.n527 vss.n526 585
R272 vss.n528 vss.n527 585
R273 vss.n627 vss.n626 551.874
R274 vss.n584 vss.n53 533.208
R275 vss.n413 vss.n68 520.659
R276 vss.n624 vss.n623 520.659
R277 vss.t35 vss.n389 515.163
R278 vss.n607 vss.n12 437.159
R279 vss.n416 vss.n415 427.812
R280 vss.n530 vss.n529 427.812
R281 vss.n567 vss.n566 411.483
R282 vss.n622 vss.n12 411.483
R283 vss.n566 vss.n68 409.976
R284 vss.n623 vss.n622 409.976
R285 vss.n248 vss.n8 386.813
R286 vss.t32 vss.n571 354.661
R287 vss.n239 vss.t35 337.858
R288 vss.n629 vss.n6 337.283
R289 vss.n529 vss.n92 336.171
R290 vss.n529 vss.n77 331.916
R291 vss.t37 vss.n77 327.661
R292 vss.t4 vss.n34 324.632
R293 vss.t35 vss.n92 323.404
R294 vss.t4 vss.n603 322.135
R295 vss.n50 vss.n46 311.077
R296 vss.n592 vss.n43 304.786
R297 vss.n103 vss.n0 250.21
R298 vss.n34 vss.n33 297.163
R299 vss.n603 vss.n28 294.998
R300 vss.n591 vss.n590 292.5
R301 vss.n592 vss.n591 292.5
R302 vss.n589 vss.n45 292.5
R303 vss.t25 vss.n45 292.5
R304 vss.n588 vss.n587 292.5
R305 vss.n587 vss.n586 292.5
R306 vss.n47 vss.n44 292.5
R307 vss.t25 vss.n44 292.5
R308 vss.n582 vss.n52 292.5
R309 vss.n52 vss.n42 292.5
R310 vss.t6 vss.n50 292.5
R311 vss.n54 vss.n51 292.5
R312 vss.n51 vss.n48 292.5
R313 vss.n585 vss.n584 292.5
R314 vss.t6 vss.n585 292.5
R315 vss.n59 vss.n57 292.5
R316 vss.n59 vss.n36 292.5
R317 vss.n580 vss.n579 292.5
R318 vss.n579 vss.t41 292.5
R319 vss.n58 vss.n56 292.5
R320 vss.n58 vss.n43 292.5
R321 vss.n578 vss.n577 292.5
R322 vss.t41 vss.n578 292.5
R323 vss.n608 vss.n28 292.5
R324 vss.n610 vss.n609 292.5
R325 vss.t4 vss.n610 292.5
R326 vss.n606 vss.n27 292.5
R327 vss.n34 vss.n27 292.5
R328 vss.n612 vss.n611 292.5
R329 vss.n611 vss.t4 292.5
R330 vss.n605 vss.n604 288
R331 vss.n503 vss.n80 263.904
R332 vss.n476 vss.n475 258.334
R333 vss.n441 vss.n440 258.334
R334 vss.n531 vss.n90 257.466
R335 vss.n198 vss.n176 257.466
R336 vss.n506 vss.n108 254.34
R337 vss.n107 vss.n103 254.34
R338 vss.n511 vss.n103 254.34
R339 vss.n514 vss.n103 254.34
R340 vss.n143 vss.n80 254.34
R341 vss.n480 vss.n80 254.34
R342 vss.n141 vss.n80 254.34
R343 vss.n491 vss.n80 254.34
R344 vss.n120 vss.n80 254.34
R345 vss.n560 vss.n74 254.34
R346 vss.n396 vss.n92 254.34
R347 vss.n448 vss.n92 254.34
R348 vss.n164 vss.n92 254.34
R349 vss.n277 vss.n92 254.34
R350 vss.n309 vss.n92 254.34
R351 vss.n312 vss.n92 254.34
R352 vss.n338 vss.n77 254.34
R353 vss.n341 vss.n77 254.34
R354 vss.n269 vss.n77 254.34
R355 vss.n282 vss.n77 254.34
R356 vss.n452 vss.n77 254.34
R357 vss.n160 vss.n77 254.34
R358 vss.n559 vss.n75 251.614
R359 vss.n398 vss.n397 251.614
R360 vss.n415 vss.n178 250.952
R361 vss.n459 vss.n458 250
R362 vss.n126 vss.t10 249.37
R363 vss.t35 vss.n209 244.915
R364 vss.n557 vss.n64 234.131
R365 vss.n200 vss.n178 215.101
R366 vss.n201 vss.n200 215.101
R367 vss.n201 vss.n194 215.101
R368 vss.n207 vss.n194 215.101
R369 vss.n208 vss.n207 215.101
R370 vss.n408 vss.n407 215.101
R371 vss.n407 vss.n406 215.101
R372 vss.n406 vss.n390 215.101
R373 vss.n400 vss.n390 215.101
R374 vss.n400 vss.n399 215.101
R375 vss.n530 vss.n87 215.101
R376 vss.n536 vss.n87 215.101
R377 vss.n537 vss.n536 215.101
R378 vss.n538 vss.n537 215.101
R379 vss.n538 vss.n79 215.101
R380 vss.n545 vss.n78 215.101
R381 vss.n546 vss.n545 215.101
R382 vss.n546 vss.n72 215.101
R383 vss.n615 vss.n24 212.103
R384 vss.n524 vss.n95 195.049
R385 vss.n250 vss.n249 195.049
R386 vss.n617 vss.n616 194.21
R387 vss.n554 vss.n553 192.385
R388 vss.n504 vss.n110 187.249
R389 vss.n308 vss.n299 187.249
R390 vss.n320 vss.n319 185
R391 vss.n322 vss.n321 185
R392 vss.n324 vss.n318 185
R393 vss.n326 vss.n325 185
R394 vss.n327 vss.n316 185
R395 vss.n329 vss.n328 185
R396 vss.n331 vss.n315 185
R397 vss.n332 vss.n314 185
R398 vss.n332 vss.t36 185
R399 vss.n334 vss.n333 185
R400 vss.n475 vss.n150 185
R401 vss.n473 vss.n472 185
R402 vss.n471 vss.n151 185
R403 vss.n470 vss.n469 185
R404 vss.n467 vss.n152 185
R405 vss.n465 vss.n464 185
R406 vss.n463 vss.n153 185
R407 vss.n462 vss.n461 185
R408 vss.n459 vss.n154 185
R409 vss.n459 vss.t36 185
R410 vss.n477 vss.n476 185
R411 vss.n140 vss.n138 185
R412 vss.n484 vss.n483 185
R413 vss.n486 vss.n137 185
R414 vss.n488 vss.n487 185
R415 vss.n119 vss.n117 185
R416 vss.n495 vss.n494 185
R417 vss.n497 vss.n116 185
R418 vss.n499 vss.n498 185
R419 vss.n440 vss.n167 185
R420 vss.n438 vss.n437 185
R421 vss.n436 vss.n168 185
R422 vss.n435 vss.n434 185
R423 vss.n432 vss.n169 185
R424 vss.n430 vss.n429 185
R425 vss.n428 vss.n170 185
R426 vss.n427 vss.n426 185
R427 vss.n424 vss.n171 185
R428 vss.n351 vss.n260 185
R429 vss.n353 vss.n352 185
R430 vss.n355 vss.n354 185
R431 vss.n358 vss.n357 185
R432 vss.n359 vss.n258 185
R433 vss.n361 vss.n360 185
R434 vss.n363 vss.n257 185
R435 vss.n365 vss.n364 185
R436 vss.n367 vss.n366 185
R437 vss.n370 vss.n369 185
R438 vss.n371 vss.n224 185
R439 vss.n380 vss.n379 185
R440 vss.n382 vss.n223 185
R441 vss.n383 vss.n213 185
R442 vss.n386 vss.n385 185
R443 vss.n221 vss.n220 185
R444 vss.n216 vss.n172 185
R445 vss.n422 vss.n421 185
R446 vss.n441 vss.n159 185
R447 vss.n443 vss.n157 185
R448 vss.n445 vss.n444 185
R449 vss.n280 vss.n275 185
R450 vss.n293 vss.n292 185
R451 vss.n296 vss.n295 185
R452 vss.n274 vss.n268 185
R453 vss.n266 vss.n261 185
R454 vss.n349 vss.n348 185
R455 vss.n347 vss.n346 185
R456 vss.n345 vss.n344 185
R457 vss.n287 vss.n270 185
R458 vss.n288 vss.n272 185
R459 vss.n291 vss.n290 185
R460 vss.n286 vss.n165 185
R461 vss.n163 vss.n156 185
R462 vss.n456 vss.n455 185
R463 vss.n458 vss.n155 185
R464 vss.n502 vss.n501 175.546
R465 vss.n501 vss.n111 175.546
R466 vss.n492 vss.n121 175.546
R467 vss.n490 vss.n122 175.546
R468 vss.n481 vss.n142 175.546
R469 vss.n479 vss.n144 175.546
R470 vss.n531 vss.n88 175.546
R471 vss.n535 vss.n88 175.546
R472 vss.n535 vss.n86 175.546
R473 vss.n539 vss.n86 175.546
R474 vss.n539 vss.n84 175.546
R475 vss.n543 vss.n84 175.546
R476 vss.n544 vss.n543 175.546
R477 vss.n547 vss.n544 175.546
R478 vss.n547 vss.n73 175.546
R479 vss.n561 vss.n73 175.546
R480 vss.n340 vss.n339 175.546
R481 vss.n342 vss.n298 175.546
R482 vss.n283 vss.n281 175.546
R483 vss.n451 vss.n162 175.546
R484 vss.n453 vss.n161 175.546
R485 vss.n524 vss.n523 175.546
R486 vss.n523 vss.n98 175.546
R487 vss.n519 vss.n98 175.546
R488 vss.n519 vss.n100 175.546
R489 vss.n515 vss.n100 175.546
R490 vss.n513 vss.n512 175.546
R491 vss.n510 vss.n105 175.546
R492 vss.n311 vss.n310 175.546
R493 vss.n271 vss.n267 175.546
R494 vss.n279 vss.n278 175.546
R495 vss.n449 vss.n447 175.546
R496 vss.n395 vss.n158 175.546
R497 vss.n199 vss.n198 175.546
R498 vss.n202 vss.n199 175.546
R499 vss.n202 vss.n195 175.546
R500 vss.n206 vss.n195 175.546
R501 vss.n206 vss.n192 175.546
R502 vss.n409 vss.n192 175.546
R503 vss.n409 vss.n193 175.546
R504 vss.n405 vss.n193 175.546
R505 vss.n405 vss.n391 175.546
R506 vss.n401 vss.n391 175.546
R507 vss.n401 vss.n398 175.546
R508 vss.n254 vss.n228 175.546
R509 vss.n373 vss.n228 175.546
R510 vss.n373 vss.n226 175.546
R511 vss.n377 vss.n226 175.546
R512 vss.n377 vss.n211 175.546
R513 vss.n388 vss.n211 175.546
R514 vss.n388 vss.n212 175.546
R515 vss.n218 vss.n212 175.546
R516 vss.n218 vss.n175 175.546
R517 vss.n419 vss.n175 175.546
R518 vss.n419 vss.n176 175.546
R519 vss.n249 vss.n232 175.546
R520 vss.n245 vss.n232 175.546
R521 vss.n245 vss.n235 175.546
R522 vss.n241 vss.n235 175.546
R523 vss.n241 vss.n238 175.546
R524 vss.n238 vss.n3 175.546
R525 vss.n632 vss.n3 175.546
R526 vss.n632 vss.n4 175.546
R527 vss.n301 vss.n4 175.546
R528 vss.n304 vss.n301 175.546
R529 vss.n304 vss.n299 175.546
R530 vss.n581 vss.n55 172.405
R531 vss.n16 vss.t38 172.304
R532 vss.n619 vss.t23 172.304
R533 vss.n29 vss.t40 172.304
R534 vss.t5 vss.n91 164.911
R535 vss.n369 vss.n367 163.333
R536 vss.t41 vss.t9 153.779
R537 vss.n108 vss.n107 152.643
R538 vss.n563 vss.n562 150.571
R539 vss.n346 vss.n345 150
R540 vss.n288 vss.n287 150
R541 vss.n290 vss.n286 150
R542 vss.n456 vss.n156 150
R543 vss.n333 vss.n332 150
R544 vss.n332 vss.n331 150
R545 vss.n329 vss.n316 150
R546 vss.n325 vss.n324 150
R547 vss.n322 vss.n319 150
R548 vss.n498 vss.n497 150
R549 vss.n495 vss.n117 150
R550 vss.n487 vss.n486 150
R551 vss.n484 vss.n138 150
R552 vss.n461 vss.n459 150
R553 vss.n465 vss.n153 150
R554 vss.n469 vss.n467 150
R555 vss.n473 vss.n151 150
R556 vss.n349 vss.n261 150
R557 vss.n295 vss.n274 150
R558 vss.n293 vss.n275 150
R559 vss.n444 vss.n443 150
R560 vss.n426 vss.n424 150
R561 vss.n430 vss.n170 150
R562 vss.n434 vss.n432 150
R563 vss.n438 vss.n168 150
R564 vss.n380 vss.n224 150
R565 vss.n383 vss.n382 150
R566 vss.n385 vss.n221 150
R567 vss.n422 vss.n172 150
R568 vss.n364 vss.n363 150
R569 vss.n361 vss.n258 150
R570 vss.n357 vss.n355 150
R571 vss.n352 vss.n351 150
R572 vss.n617 vss.n22 147.888
R573 vss.n529 vss.n91 138.62
R574 vss.n586 vss.n48 138.54
R575 vss.n53 vss.n46 136.534
R576 vss.n593 vss.n42 132.998
R577 vss.n313 vss.n308 126.782
R578 vss.n337 vss.n95 124.832
R579 vss.n254 vss.n250 124.832
R580 vss.t41 vss.n60 119.144
R581 vss.n570 vss.n569 117.001
R582 vss.n571 vss.n570 117.001
R583 vss.n556 vss.n555 117.001
R584 vss.n557 vss.n556 117.001
R585 vss.n575 vss.n574 117.001
R586 vss.n574 vss.n573 117.001
R587 vss.n145 vss.n62 117.001
R588 vss.n124 vss.n62 117.001
R589 vss.n131 vss.n130 117.001
R590 vss.n131 vss.n64 117.001
R591 vss.n133 vss.n132 117.001
R592 vss.n132 vss.t10 117.001
R593 vss.n128 vss.n113 117.001
R594 vss.n128 vss.n127 117.001
R595 vss.n129 vss.n106 117.001
R596 vss.n129 vss.t10 117.001
R597 vss.n600 vss.n599 117.001
R598 vss.n601 vss.n600 117.001
R599 vss.n597 vss.n38 117.001
R600 vss.t9 vss.n38 117.001
R601 vss.n595 vss.n594 117.001
R602 vss.n594 vss.n593 117.001
R603 vss.n39 vss.n37 117.001
R604 vss.t9 vss.n37 117.001
R605 vss.n565 vss.n564 117.001
R606 vss.n564 vss.n563 117.001
R607 vss.n414 vss.n413 117.001
R608 vss.n415 vss.n414 117.001
R609 vss.n185 vss.n184 117.001
R610 vss.n184 vss.n91 117.001
R611 vss.n21 vss.n18 117.001
R612 vss.n18 vss.n16 117.001
R613 vss.n625 vss.n624 117.001
R614 vss.n626 vss.n625 117.001
R615 vss.n621 vss.n620 117.001
R616 vss.n620 vss.n619 117.001
R617 vss.n616 vss.n19 117.001
R618 vss.n29 vss.n19 117.001
R619 vss.n32 vss.n25 117.001
R620 vss.n33 vss.n32 117.001
R621 vss.n49 vss.t25 114.987
R622 vss.n399 vss.t5 114.721
R623 vss.n54 vss.n53 114.162
R624 vss.n408 vss.t35 112.331
R625 vss.t37 vss.n78 112.331
R626 vss.t37 vss.n80 105.29
R627 vss.n599 vss.n39 104.534
R628 vss.t35 vss.n208 102.77
R629 vss.t37 vss.n79 102.77
R630 vss.t39 vss.n557 95.5924
R631 vss.n609 vss.n608 91.4829
R632 vss.n589 vss.n588 91.4829
R633 vss.n580 vss.n57 91.4829
R634 vss.n624 vss.n11 89.8066
R635 vss.n127 vss.n126 87.2801
R636 vss.n507 vss.n106 85.6701
R637 vss.n123 vss.n106 82.824
R638 vss.n568 vss.n53 82.3356
R639 vss.n413 vss.n412 79.8123
R640 vss.n596 vss.n39 79.8123
R641 vss.n40 vss.t33 79.2195
R642 vss.n120 vss.n111 76.3222
R643 vss.n492 vss.n491 76.3222
R644 vss.n141 vss.n122 76.3222
R645 vss.n481 vss.n480 76.3222
R646 vss.n144 vss.n143 76.3222
R647 vss.n560 vss.n559 76.3222
R648 vss.n338 vss.n337 76.3222
R649 vss.n341 vss.n340 76.3222
R650 vss.n298 vss.n269 76.3222
R651 vss.n283 vss.n282 76.3222
R652 vss.n452 vss.n451 76.3222
R653 vss.n161 vss.n160 76.3222
R654 vss.n514 vss.n513 76.3222
R655 vss.n511 vss.n510 76.3222
R656 vss.n110 vss.n108 76.3222
R657 vss.n107 vss.n105 76.3222
R658 vss.n512 vss.n511 76.3222
R659 vss.n515 vss.n514 76.3222
R660 vss.n143 vss.n75 76.3222
R661 vss.n480 vss.n479 76.3222
R662 vss.n142 vss.n141 76.3222
R663 vss.n491 vss.n490 76.3222
R664 vss.n121 vss.n120 76.3222
R665 vss.n561 vss.n560 76.3222
R666 vss.n312 vss.n311 76.3222
R667 vss.n309 vss.n267 76.3222
R668 vss.n278 vss.n277 76.3222
R669 vss.n447 vss.n164 76.3222
R670 vss.n448 vss.n158 76.3222
R671 vss.n397 vss.n396 76.3222
R672 vss.n396 vss.n395 76.3222
R673 vss.n449 vss.n448 76.3222
R674 vss.n279 vss.n164 76.3222
R675 vss.n277 vss.n271 76.3222
R676 vss.n310 vss.n309 76.3222
R677 vss.n313 vss.n312 76.3222
R678 vss.n339 vss.n338 76.3222
R679 vss.n342 vss.n341 76.3222
R680 vss.n281 vss.n269 76.3222
R681 vss.n282 vss.n162 76.3222
R682 vss.n453 vss.n452 76.3222
R683 vss.n160 vss.n90 76.3222
R684 vss.n423 vss.n422 74.5978
R685 vss.n424 vss.n423 74.5978
R686 vss.n558 vss.t28 73.6705
R687 vss.n569 vss.n67 72.6492
R688 vss.n565 vss.n69 70.4005
R689 vss.n621 vss.n13 70.4005
R690 vss.n498 vss.n114 69.3109
R691 vss.n319 vss.n114 69.3109
R692 vss.n350 vss.n349 69.3109
R693 vss.n351 vss.n350 69.3109
R694 vss.n571 vss.n48 67.8846
R695 vss.n323 vss.t36 65.8183
R696 vss.n317 vss.t36 65.8183
R697 vss.n330 vss.t36 65.8183
R698 vss.n474 vss.t36 65.8183
R699 vss.n468 vss.t36 65.8183
R700 vss.n466 vss.t36 65.8183
R701 vss.n460 vss.t36 65.8183
R702 vss.n146 vss.t36 65.8183
R703 vss.n485 vss.t36 65.8183
R704 vss.n135 vss.t36 65.8183
R705 vss.n496 vss.t36 65.8183
R706 vss.n439 vss.t34 65.8183
R707 vss.n433 vss.t34 65.8183
R708 vss.n431 vss.t34 65.8183
R709 vss.n425 vss.t34 65.8183
R710 vss.n259 vss.t34 65.8183
R711 vss.n356 vss.t34 65.8183
R712 vss.n362 vss.t34 65.8183
R713 vss.n230 vss.t34 65.8183
R714 vss.n368 vss.t34 65.8183
R715 vss.n381 vss.t34 65.8183
R716 vss.n384 vss.t34 65.8183
R717 vss.n215 vss.t34 65.8183
R718 vss.n442 vss.t34 65.8183
R719 vss.t34 vss.n166 65.8183
R720 vss.n294 vss.t34 65.8183
R721 vss.n273 vss.t34 65.8183
R722 vss.n265 vss.t36 65.8183
R723 vss.n289 vss.t36 65.8183
R724 vss.n285 vss.t36 65.8183
R725 vss.n457 vss.t36 65.8183
R726 vss.n55 vss.n54 64.6924
R727 vss.n563 vss.n72 64.5307
R728 vss.n264 vss.t36 64.1729
R729 vss.n573 vss.n60 58.1869
R730 vss.t36 vss.n114 57.8461
R731 vss.n350 vss.t34 57.8461
R732 vss.n504 vss.n503 57.1945
R733 vss.n503 vss.n502 57.1945
R734 vss.n346 vss.n264 56.6572
R735 vss.n333 vss.n264 56.6572
R736 vss.n423 vss.t34 55.2026
R737 vss.n345 vss.n265 53.3664
R738 vss.n289 vss.n288 53.3664
R739 vss.n286 vss.n285 53.3664
R740 vss.n457 vss.n456 53.3664
R741 vss.n330 vss.n329 53.3664
R742 vss.n325 vss.n317 53.3664
R743 vss.n323 vss.n322 53.3664
R744 vss.n324 vss.n323 53.3664
R745 vss.n317 vss.n316 53.3664
R746 vss.n331 vss.n330 53.3664
R747 vss.n496 vss.n495 53.3664
R748 vss.n487 vss.n135 53.3664
R749 vss.n485 vss.n484 53.3664
R750 vss.n476 vss.n146 53.3664
R751 vss.n460 vss.n153 53.3664
R752 vss.n466 vss.n465 53.3664
R753 vss.n468 vss.n151 53.3664
R754 vss.n474 vss.n473 53.3664
R755 vss.n475 vss.n474 53.3664
R756 vss.n469 vss.n468 53.3664
R757 vss.n467 vss.n466 53.3664
R758 vss.n461 vss.n460 53.3664
R759 vss.n146 vss.n138 53.3664
R760 vss.n486 vss.n485 53.3664
R761 vss.n135 vss.n117 53.3664
R762 vss.n497 vss.n496 53.3664
R763 vss.n274 vss.n273 53.3664
R764 vss.n294 vss.n293 53.3664
R765 vss.n444 vss.n166 53.3664
R766 vss.n442 vss.n441 53.3664
R767 vss.n426 vss.n425 53.3664
R768 vss.n431 vss.n430 53.3664
R769 vss.n434 vss.n433 53.3664
R770 vss.n439 vss.n438 53.3664
R771 vss.n440 vss.n439 53.3664
R772 vss.n433 vss.n168 53.3664
R773 vss.n432 vss.n431 53.3664
R774 vss.n425 vss.n170 53.3664
R775 vss.n369 vss.n368 53.3664
R776 vss.n381 vss.n380 53.3664
R777 vss.n384 vss.n383 53.3664
R778 vss.n221 vss.n215 53.3664
R779 vss.n367 vss.n230 53.3664
R780 vss.n363 vss.n362 53.3664
R781 vss.n356 vss.n258 53.3664
R782 vss.n355 vss.n259 53.3664
R783 vss.n352 vss.n259 53.3664
R784 vss.n357 vss.n356 53.3664
R785 vss.n362 vss.n361 53.3664
R786 vss.n364 vss.n230 53.3664
R787 vss.n368 vss.n224 53.3664
R788 vss.n382 vss.n381 53.3664
R789 vss.n385 vss.n384 53.3664
R790 vss.n215 vss.n172 53.3664
R791 vss.n443 vss.n442 53.3664
R792 vss.n275 vss.n166 53.3664
R793 vss.n295 vss.n294 53.3664
R794 vss.n273 vss.n261 53.3664
R795 vss.n287 vss.n265 53.3664
R796 vss.n290 vss.n289 53.3664
R797 vss.n285 vss.n156 53.3664
R798 vss.n458 vss.n457 53.3664
R799 vss.n609 vss.n607 52.6144
R800 vss.t37 vss.n0 24.7457
R801 vss.n417 vss.n416 50.6723
R802 vss.n576 vss.n57 48.6907
R803 vss.n590 vss.n589 48.0123
R804 vss.n553 vss.n552 45.8245
R805 vss.n24 vss.n23 45.8245
R806 vss.n599 vss.n598 45.5534
R807 vss.n598 vss.n40 45.4279
R808 vss.n576 vss.n575 44.0476
R809 vss.n581 vss.n580 43.432
R810 vss.n584 vss.n583 42.5417
R811 vss.n588 vss.n47 41.5855
R812 vss.n586 vss.t6 41.5622
R813 vss.t25 vss.n42 41.5622
R814 vss.n590 vss.n46 32.1774
R815 vss.n566 vss.n565 31.557
R816 vss.n622 vss.n621 31.557
R817 vss.n582 vss.n46 28.1851
R818 vss.t9 vss.n43 26.3229
R819 vss.n607 vss.n604 24.3205
R820 vss.n577 vss.n56 24.1034
R821 vss.t6 vss.n49 23.5521
R822 vss.n551 vss.n81 20.6635
R823 vss.n76 vss.n7 20.5966
R824 vss.n567 vss.n66 18.8715
R825 vss.t39 vss.n66 18.8715
R826 vss.n553 vss.n65 18.8715
R827 vss.t39 vss.n65 18.8715
R828 vss.n572 vss.n63 18.8715
R829 vss.n572 vss.t32 18.8715
R830 vss.n61 vss.n41 18.8715
R831 vss.t32 vss.n61 18.8715
R832 vss.n180 vss.n68 18.8715
R833 vss.t5 vss.n180 18.8715
R834 vss.n186 vss.n179 18.8715
R835 vss.t5 vss.n179 18.8715
R836 vss.n552 vss.n82 18.8715
R837 vss.n82 vss.t28 18.8715
R838 vss.n81 vss.t28 18.8715
R839 vss.n618 vss.n617 18.8715
R840 vss.t23 vss.n618 18.8715
R841 vss.n20 vss.n9 18.8715
R842 vss.n9 vss.t38 18.8715
R843 vss.n31 vss.n12 18.8715
R844 vss.n31 vss.t40 18.8715
R845 vss.n623 vss.n10 18.8715
R846 vss.n10 vss.t38 18.8715
R847 vss.n30 vss.n24 18.8715
R848 vss.n30 vss.t40 18.8715
R849 vss.n23 vss.n17 18.8715
R850 vss.t23 vss.n17 18.8715
R851 vss.n47 vss.n46 18.4642
R852 vss.n558 vss.t37 17.5414
R853 vss.n616 vss.n615 17.1248
R854 vss.n613 vss.n25 16.8005
R855 vss.n615 vss.n614 16.2422
R856 vss.n606 vss.n605 16.0716
R857 vss.n334 vss.n314 16.0005
R858 vss.n315 vss.n314 16.0005
R859 vss.n328 vss.n315 16.0005
R860 vss.n328 vss.n327 16.0005
R861 vss.n327 vss.n326 16.0005
R862 vss.n321 vss.n318 16.0005
R863 vss.n321 vss.n320 16.0005
R864 vss.n462 vss.n154 16.0005
R865 vss.n463 vss.n462 16.0005
R866 vss.n464 vss.n463 16.0005
R867 vss.n464 vss.n152 16.0005
R868 vss.n470 vss.n152 16.0005
R869 vss.n471 vss.n470 16.0005
R870 vss.n472 vss.n471 16.0005
R871 vss.n472 vss.n150 16.0005
R872 vss.n427 vss.n171 16.0005
R873 vss.n428 vss.n427 16.0005
R874 vss.n429 vss.n428 16.0005
R875 vss.n429 vss.n169 16.0005
R876 vss.n435 vss.n169 16.0005
R877 vss.n436 vss.n435 16.0005
R878 vss.n437 vss.n436 16.0005
R879 vss.n437 vss.n167 16.0005
R880 vss.n366 vss.n365 16.0005
R881 vss.n365 vss.n257 16.0005
R882 vss.n360 vss.n257 16.0005
R883 vss.n360 vss.n359 16.0005
R884 vss.n359 vss.n358 16.0005
R885 vss.n354 vss.n353 16.0005
R886 vss.n353 vss.n260 16.0005
R887 vss.n562 vss.t28 14.3405
R888 vss.n335 vss.n260 13.5116
R889 vss.n318 vss 12.9783
R890 vss.n320 vss.n112 12.9783
R891 vss.n354 vss 12.9783
R892 vss.n554 vss.n551 12.4625
R893 vss.n101 vss.n97 11.6369
R894 vss.n518 vss.n101 11.6369
R895 vss.n518 vss.n517 11.6369
R896 vss.n517 vss.n516 11.6369
R897 vss.n516 vss.n102 11.6369
R898 vss.n509 vss.n104 11.6369
R899 vss.n509 vss.n508 11.6369
R900 vss.n244 vss.n236 11.6369
R901 vss.n244 vss.n243 11.6369
R902 vss.n243 vss.n242 11.6369
R903 vss.n242 vss.n237 11.6369
R904 vss.n237 vss.n1 11.6369
R905 vss.n633 vss.n2 11.6369
R906 vss.n300 vss.n2 11.6369
R907 vss.n305 vss.n300 11.6369
R908 vss.n508 vss.n507 11.5076
R909 vss.n127 vss.n124 11.0836
R910 vss.n134 vss.n133 10.8757
R911 vss.n133 vss.n123 10.587
R912 vss.n595 vss.n41 10.4978
R913 vss.n104 vss 10.3439
R914 vss vss.n633 10.3439
R915 vss.n130 vss.n41 10.3072
R916 vss.n597 vss.n596 10.202
R917 vss.n555 vss.n63 10.1462
R918 vss.n569 vss.n568 10.0329
R919 vss.n412 vss.n411 10.0283
R920 vss.n393 vss.n154 9.95606